<?xml version="1.0" encoding="UTF-8"?>

<!-- generated on 2021-12-21 23:24:23 by Eclipse SUMO netedit Version 1.10.0
<configuration xmlns:xsi="http://www.w3.org/2001/XMLSchema-instance" xsi:noNamespaceSchemaLocation="http://sumo.dlr.de/xsd/netconvertConfiguration.xsd">

    <input>
        <sumo-net-file value="F:\大学\MTFwiki\SUMO-Q_learning\SUMO-RL-ramp-control\Q-learning-control\test1_copy.net.xml"/>
    </input>

    <output>
        <output-file value="F:\大学\MTFwiki\SUMO-Q_learning\SUMO-RL-ramp-control\Q-learning-control\test1_copy.net.xml"/>
    </output>

    <processing>
        <geometry.min-radius.fix.railways value="false"/>
        <geometry.max-grade.fix value="false"/>
        <offset.disable-normalization value="true"/>
        <lefthand value="false"/>
    </processing>

    <junctions>
        <no-internal-links value="true"/>
        <no-turnarounds value="true"/>
        <junctions.corner-detail value="5"/>
        <junctions.limit-turn-speed value="5.5"/>
        <rectangular-lane-cut value="false"/>
    </junctions>

    <pedestrian>
        <walkingareas value="false"/>
    </pedestrian>

    <report>
        <aggregate-warnings value="5"/>
    </report>

</configuration>
-->

<net version="1.9" junctionCornerDetail="5" limitTurnSpeed="5.50" xmlns:xsi="http://www.w3.org/2001/XMLSchema-instance" xsi:noNamespaceSchemaLocation="http://sumo.dlr.de/xsd/net_file.xsd">

    <location netOffset="0.00,0.00" convBoundary="-100.00,-33.01,160.00,0.00" origBoundary="-10000000000.00,-10000000000.00,10000000000.00,10000000000.00" projParameter="!"/>

    <edge id="C1" from="gneJ6" to="gneJ0" priority="-1">
        <lane id="C1_0" index="0" speed="13.89" length="53.06" shape="-79.48,-30.27 -31.16,-14.93"/>
        <lane id="C1_1" index="1" speed="13.89" length="53.06" shape="-80.45,-27.22 -32.13,-11.88"/>
    </edge>
    <edge id="C2" from="gneJ1" to="gneJ8" priority="-1">
        <lane id="C2_0" index="0" speed="13.89" length="43.62" shape="114.88,-15.48 147.76,-37.03"/>
        <lane id="C2_1" index="1" speed="13.89" length="43.62" shape="116.63,-12.81 149.51,-34.35"/>
    </edge>
    <edge id="H.5" from="gneJ9" to="gneJ10" priority="-1" spreadType="roadCenter">
        <lane id="H.5_0" index="0" speed="33.00" length="35.00" shape="5.00,-14.40 40.00,-14.40"/>
        <lane id="H.5_1" index="1" speed="33.00" length="35.00" shape="5.00,-11.20 40.00,-11.20"/>
        <lane id="H.5_2" index="2" speed="33.00" length="35.00" shape="5.00,-8.00 40.00,-8.00"/>
        <lane id="H.5_3" index="3" speed="33.00" length="35.00" shape="5.00,-4.80 40.00,-4.80"/>
        <lane id="H.5_4" index="4" speed="33.00" length="35.00" shape="5.00,-1.60 40.00,-1.60"/>
    </edge>
    <edge id="H_1" from="gneJ0" to="gneJ9" priority="-1" spreadType="roadCenter" length="100.00">
        <lane id="H_1_0" index="0" speed="33.00" length="100.00" shape="-27.75,-14.40 5.00,-14.40"/>
        <lane id="H_1_1" index="1" speed="33.00" length="100.00" shape="-27.75,-11.20 5.00,-11.20"/>
        <lane id="H_1_2" index="2" speed="33.00" length="100.00" shape="-27.75,-8.00 5.00,-8.00"/>
        <lane id="H_1_3" index="3" speed="33.00" length="100.00" shape="-27.75,-4.80 5.00,-4.80"/>
        <lane id="H_1_4" index="4" speed="33.00" length="100.00" shape="-27.75,-1.60 5.00,-1.60"/>
    </edge>
    <edge id="H_3" from="gneJ10" to="gneJ11" priority="-1" spreadType="roadCenter">
        <lane id="H_3_0" index="0" speed="33.00" length="35.00" shape="40.00,-14.40 75.00,-14.40"/>
        <lane id="H_3_1" index="1" speed="33.00" length="35.00" shape="40.00,-11.20 75.00,-11.20"/>
        <lane id="H_3_2" index="2" speed="33.00" length="35.00" shape="40.00,-8.00 75.00,-8.00"/>
        <lane id="H_3_3" index="3" speed="33.00" length="35.00" shape="40.00,-4.80 75.00,-4.80"/>
        <lane id="H_3_4" index="4" speed="33.00" length="35.00" shape="40.00,-1.60 75.00,-1.60"/>
    </edge>
    <edge id="H_4" from="gneJ11" to="gneJ1" priority="-1" spreadType="roadCenter">
        <lane id="H_4_0" index="0" speed="33.00" length="44.17" shape="75.00,-14.40 108.26,-14.40"/>
        <lane id="H_4_1" index="1" speed="33.00" length="44.17" shape="75.00,-11.20 108.23,-11.20"/>
        <lane id="H_4_2" index="2" speed="33.00" length="44.17" shape="75.00,-8.00 108.19,-8.00"/>
        <lane id="H_4_3" index="3" speed="33.00" length="44.17" shape="75.00,-4.80 108.15,-4.80"/>
        <lane id="H_4_4" index="4" speed="33.00" length="44.17" shape="75.00,-1.60 108.12,-1.60"/>
    </edge>
    <edge id="Z1" from="gneJ4" to="gneJ0" priority="-1">
        <lane id="Z1_0" index="0" speed="40.00" length="79.48" shape="-100.00,-8.00 -31.74,-8.00"/>
        <lane id="Z1_1" index="1" speed="40.00" length="79.48" shape="-100.00,-4.80 -31.74,-4.80"/>
        <lane id="Z1_2" index="2" speed="40.00" length="79.48" shape="-100.00,-1.60 -31.74,-1.60"/>
    </edge>
    <edge id="Z2" from="gneJ1" to="gneJ7" priority="-1">
        <lane id="Z2_0" index="0" speed="40.00" length="62.97" shape="118.34,-4.80 160.00,-4.80"/>
        <lane id="Z2_1" index="1" speed="40.00" length="62.97" shape="118.27,-1.60 160.00,-1.60"/>
    </edge>

    <tlLogic id="gneJ0" type="static" programID="0" offset="0">
        <phase duration="37" state="GG"/>
        <phase duration="8"  state="rg"/>
        <phase duration="37" state="GG"/>
        <phase duration="8"  state="rG"/>
    </tlLogic>

    <junction id="gneJ0" type="traffic_light_unregulated" x="0.00" y="0.00" incLanes="C1_0 C1_1 Z1_0 Z1_1 Z1_2" intLanes="" shape="-27.75,0.00 -27.75,-16.00 -28.86,-16.02 -29.24,-16.06 -29.62,-16.14 -30.08,-16.26 -30.68,-16.45 -32.62,-10.35 -31.46,-9.94 -31.21,-9.79 -31.17,-9.68 -31.35,-9.62 -31.74,-9.60 -31.74,0.00"/>
    <junction id="gneJ1" type="unregulated" x="100.00" y="0.00" incLanes="H_4_0 H_4_1 H_4_2 H_4_3 H_4_4" intLanes="" shape="118.23,-0.04 118.38,-6.57 112.51,-9.81 117.51,-11.47 114.00,-16.82 112.08,-15.90 108.28,-16.04 108.10,0.00" customShape="1"/>
    <junction id="gneJ10" type="priority" x="40.00" y="0.00" incLanes="H.5_0 H.5_1 H.5_2 H.5_3 H.5_4" intLanes="" shape="40.00,0.00 40.00,-16.00 40.00,0.00">
        <request index="0" response="00000" foes="00000"/>
        <request index="1" response="00000" foes="00000"/>
        <request index="2" response="00000" foes="00000"/>
        <request index="3" response="00000" foes="00000"/>
        <request index="4" response="00000" foes="00000"/>
    </junction>
    <junction id="gneJ11" type="priority" x="75.00" y="0.00" incLanes="H_3_0 H_3_1 H_3_2 H_3_3 H_3_4" intLanes="" shape="75.00,0.00 75.00,-16.00 75.00,0.00">
        <request index="0" response="00000" foes="00000"/>
        <request index="1" response="00000" foes="00000"/>
        <request index="2" response="00000" foes="00000"/>
        <request index="3" response="00000" foes="00000"/>
        <request index="4" response="00000" foes="00000"/>
    </junction>
    <junction id="gneJ4" type="dead_end" x="-100.00" y="0.00" incLanes="" intLanes="" shape="-100.00,0.00 -100.00,-9.60"/>
    <junction id="gneJ6" type="dead_end" x="-80.93" y="-25.69" incLanes="" intLanes="" shape="-80.93,-25.69 -78.99,-31.79"/>
    <junction id="gneJ7" type="dead_end" x="160.00" y="0.00" incLanes="Z2_0 Z2_1" intLanes="" shape="160.00,-6.40 160.00,0.00"/>
    <junction id="gneJ8" type="dead_end" x="150.39" y="-33.01" incLanes="C2_0 C2_1" intLanes="" shape="146.88,-38.36 150.39,-33.01"/>
    <junction id="gneJ9" type="priority" x="5.00" y="0.00" incLanes="H_1_0 H_1_1 H_1_2 H_1_3 H_1_4" intLanes="" shape="5.00,0.00 5.00,-16.00 5.00,0.00">
        <request index="0" response="00000" foes="00000"/>
        <request index="1" response="00000" foes="00000"/>
        <request index="2" response="00000" foes="00000"/>
        <request index="3" response="00000" foes="00000"/>
        <request index="4" response="00000" foes="00000"/>
    </junction>

    <connection from="C1" to="H_1" fromLane="0" toLane="0" tl="gneJ0" linkIndex="0" dir="s" state="O"/>
    <connection from="C1" to="H_1" fromLane="1" toLane="1" tl="gneJ0" linkIndex="0" dir="s" state="O"/>
    <connection from="H.5" to="H_3" fromLane="0" toLane="0" dir="s" state="M"/>
    <connection from="H.5" to="H_3" fromLane="1" toLane="1" dir="s" state="M"/>
    <connection from="H.5" to="H_3" fromLane="2" toLane="2" dir="s" state="M"/>
    <connection from="H.5" to="H_3" fromLane="3" toLane="3" dir="s" state="M"/>
    <connection from="H.5" to="H_3" fromLane="4" toLane="4" dir="s" state="M"/>
    <connection from="H_1" to="H.5" fromLane="0" toLane="0" dir="s" state="M"/>
    <connection from="H_1" to="H.5" fromLane="1" toLane="1" dir="s" state="M"/>
    <connection from="H_1" to="H.5" fromLane="2" toLane="2" dir="s" state="M"/>
    <connection from="H_1" to="H.5" fromLane="3" toLane="3" dir="s" state="M"/>
    <connection from="H_1" to="H.5" fromLane="4" toLane="4" dir="s" state="M"/>
    <connection from="H_3" to="H_4" fromLane="0" toLane="0" dir="s" state="M"/>
    <connection from="H_3" to="H_4" fromLane="1" toLane="1" dir="s" state="M"/>
    <connection from="H_3" to="H_4" fromLane="2" toLane="2" dir="s" state="M"/>
    <connection from="H_3" to="H_4" fromLane="3" toLane="3" dir="s" state="M"/>
    <connection from="H_3" to="H_4" fromLane="4" toLane="4" dir="s" state="M"/>
    <connection from="H_4" to="C2" fromLane="0" toLane="0" dir="R" state="M"/>
    <connection from="H_4" to="C2" fromLane="1" toLane="1" dir="R" state="M"/>
    <connection from="H_4" to="Z2" fromLane="2" toLane="0" dir="s" state="M"/>
    <connection from="H_4" to="Z2" fromLane="3" toLane="0" dir="s" state="M"/>
    <connection from="H_4" to="Z2" fromLane="4" toLane="1" dir="s" state="M"/>
    <connection from="Z1" to="H_1" fromLane="0" toLane="2" tl="gneJ0" linkIndex="1" dir="s" state="O"/>
    <connection from="Z1" to="H_1" fromLane="1" toLane="3" uncontrolled="1" dir="s" state="M"/>
    <connection from="Z1" to="H_1" fromLane="2" toLane="4" uncontrolled="1" dir="s" state="M"/>

</net>
